d:rust
d:libunistring
d:gtk3
d:gconf
d:lvm2
d:gettext
d:parted
d:gvfs
d:linux-pam
d:gcc
d:inetutils
d:gdbm
d:musl
d:scratchpkg
d:sysklogd
d:leafpad
d:libnl
d:polkit
d:networkmanager
d:qt5
d:palemoon
d:libdrm
d:tzutils
d:ninja
d:js60
d:libwnck2
d:libcap
d:lxpanel
d:m4
d:patch
d:webkitgtk
d:findutils
d:icu
d:elfutils
d:groff
d:lxinput
d:llvm
d:lxappearance-obconf
d:librsvg
d:gtk2
d:musl-fts
d:libuargp
d:base-musl
d:lz4
f:1c26c6abf0bbb2494e7ad18e72a27a76:rust/0040-rls-atomics.patch
f:b6a3af18d3c6a0d0b21a6b1e103d9012:rust/spkgbuild2
f:8e0ee1ba5d4246bd1f3dbee4bcb84f3e:rust/spkgbuild
f:26fdd8ef25c92e79b4f56586e3bdd1cb:rust/0030-libc-linkage.patch
f:23970d9e2343567aaae3ef920e351a44:rust/0001-Don-t-pass-CFLAGS-to-the-C-compiler.patch
f:b78c8f8770d85dfef2a05537625f59e1:rust/0011-Link-stage-2-tools-dynamically-to-libstd.patch
f:03dece138626e6c34a386c2090b04d79:rust/0008-test-use-extern-for-plugins-Don-t-assume-multilib.patch
f:993d63cc1477545daa34f98ebba60d4f:rust/0031-typenum-pmmx.patch
f:3fa7553e71fc9b6dc7889bb7d6d19db8:rust/0010-Ignore-broken-and-non-applicable-tests.patch
f:b41d5a1480ea80e588b3043280635b06:rust/0005-Remove-nostdlib-and-musl_root-from-musl-targets.patch
f:e737a759af62f7abfa05232b2ef37efa:rust/0003-Allow-rustdoc-to-work-when-cross-compiling-on-musl.patch
f:ba370a8f1f2cff64b4364d95c3239a74:rust/0013-Add-foxkit-target-specs.patch
f:f1d690f22a844fe6d1674cfe2b654840:rust/0002-Fix-LLVM-build.patch
f:54b9b735f0c60c615b4d18256873b7a1:rust/0009-test-sysroot-crates-are-unstable-Fix-test-when-rpath.patch
f:1570b1ed9b6e54e8873b71a7be360c49:rust/0004-Require-static-native-libraries-when-linking-static-.patch
f:6420a537588a0dd283307a634c45551b:rust/0007-runtest-Fix-proc-macro-tests-on-musl-hosts.patch
f:d1c0492da3bae13b8e1b5da8154b8d64:rust/0006-Prefer-libgcc_eh-over-libunwind-for-musl.patch
f:4a0b8fce54ae8e08aabe4e1106f2969a:rust/musl.patch
f:80cd3dc3e991c3ee7b216b963a9e7520:rust/0012-Move-debugger-scripts-to-usr-share-rust.patch
f:dc566e52259c73a61bbf828ae2186a3e:libunistring/spkgbuild
f:6aaff400b8579df77ce5c3a195b84123:gtk3/spkgbuild
f:cc78b580f707a2b45eb8a425b44e4672:gtk3/install
f:47b54c6ac132268d6f8fed1e89672a13:gconf/spkgbuild
f:04522cd3aac3c6012bbfd9f584ce22b4:lvm2/spkgbuild
f:bbfa0bc4640e515fc673f471f5c08256:lvm2/fix-stdio-usage.patch
f:3f4a9d57620f240f6bf389c1debc2ba5:lvm2/mallinfo.patch
f:79f918e12bdf1d565d517193c3fe709f:lvm2/readme
f:71712795f6732e20cc983ac3f942266f:gettext/spkgbuild
f:708c3a0bf816621109cbf6ceab56ce65:parted/spkgbuild
f:e87ffa1171acbebfa9d2475a093e7e64:parted/fix-includes.patch
f:3f2af097400ae3e59b0ae84141d77dd2:parted/parted-3.2-sysmacros.patch
f:32f079ce4d14acb80598eb681a0f9b80:gvfs/spkgbuild
f:ad0886813cda6f97d4ef5ffbe98bb45b:linux-pam/system-auth
f:410d9f2cd499223f94585c4388d83687:linux-pam/spkgbuild
f:9ade1e4582b34e138368664ff145fd94:linux-pam/musl-fix-pam_exec.patch
f:6e6c8719e5989d976a14610f340bd33a:linux-pam/other
f:eb4ea92b2a8c0712fbdf34e7a1dbf5bc:linux-pam/pam_unix_sys_resource.patch
f:efef8f098ec81cf31effc5670d5c5767:linux-pam/portability-fixes.patch
f:b63d1b5c40deaced7c91339f2fa7eac1:linux-pam/musl.patch
f:0408995b1b1d86f5ca0bc74e79c7465c:gcc/spkgbuild
f:da96f545b863e57c6ab2598c1ea9a740:gcc/c99
f:3d333df77302ed89e06a4a8539943b7d:gcc/c89
f:38ac5b46cb3fb02243198a9379e54420:inetutils/spkgbuild
f:7a64014f13a73e4361ae07cbd78e40db:gdbm/spkgbuild
f:edf6aa09a822a0ca8a58f6e96b355feb:musl/spkgbuild
f:68eba68307ef4b5c5e8713c2679b12a3:musl/getconf.1
f:09dcb73d22df3b5229ac3b1ce0490dc8:musl/getent.1
f:57ef2c63b9ec6a2041694ace97d4ffa2:musl/getconf.c
f:45f92f8d59cf84d765de698a9578dbf4:musl/iconv.c
f:7a5dbcc716b86f6419ee819983f196db:musl/getent.c
f:ea1116fe8a7d658f64917bf1ed2e37bb:scratchpkg/spkgbuild
f:a4e56154de12afc5c722cb53fce8a13b:scratchpkg/repo
f:fdbfb679fd9fd5ba90a9c1507ded5dfc:sysklogd/spkgbuild
f:fee8beb8c17f8ff8bbf6523fbb1c627f:sysklogd/fix-includes.patch
f:c71826d1a4f3f7e8ffa57adbfc24f1ce:sysklogd/sysklogd-1.5-build.patch
f:6b5bf4e2fae36cc8131f09cb2bf06d86:sysklogd/sysklogd.rc
f:41480cb654980ca65b041dee4a0230fb:leafpad/spkgbuild
f:6c9d4e8a37a72de8d869536b3c2f16f8:libnl/spkgbuild
f:15fd1a0b89802d8bb8dfb4fef4835a24:libnl/musl.patch
f:8c8b6d8f3bb968eebb26befb04b7c0c7:polkit/mkdirs
f:60db8fdcb395ef6165f630a6a081d63c:polkit/spkgbuild
f:22c4654b2e945aeb3da19b1ba099ebaf:polkit/make-innetgr-optional.patch
f:2b6baf54679684207d9b5b593af89d71:polkit/install
f:83d45a3a25f26b6300213be83f801859:networkmanager/spkgbuild
f:6dafed6f16ea2d29761be435cbedcae9:networkmanager/networkmanager.rc
f:4b3594caee829b4d980c6f59616f14c3:networkmanager/musl-basic.patch
f:710b932289178b402802868410973a85:networkmanager/musl-network-support.patch
f:7651aef091e6b2d4a8c917046b8be592:networkmanager/musl-fix-includes.patch
f:806989a94642a5b6c2efa2e19be5f6cd:networkmanager/musl-process-util.patch
f:7eda681443e50c41af4163890cd30c7d:networkmanager/musl-has-not-secure-getenv.patch
f:6b399d0c14841f23f88621c610460581:qt5/spkgbuild
f:26fd4c3e7632fe3c83b326bc19e712b0:qt5/qt-musl-iconv-no-bom.patch
f:64a3d7042c08151b70055a1c927cce3e:qt5/qt-5.13.0-upstream_fixes-1.patch
f:49b855eace093c74bd7dac5d0a88473b:palemoon/spkgbuild
f:5c815a92b7fe5f972e90c3629c224572:palemoon/firefox38-xul-order.patch
f:cee6622cc7bc41c1145651bc4d3ada8f:palemoon/fix-build-gcc9.patch
f:490eff54299ef2b2cc54380c80639c84:palemoon/firefox-virtualenv2.patch
f:ff5501760b6cffeb0b6c55e74fac8071:palemoon/firefox-virtualenv.patch
f:1585d6473435077ee29af114f1a2b919:palemoon/mozconfig
f:9e0341d2ce549ca8fbf8832a0613ebc5:libdrm/spkgbuild
f:14eedf687c9af13bc116dc0a0112d17d:libdrm/dont-build-noveau-tests.patch
f:e8a8b0c60f905718212473c519292c42:tzutils/spkgbuild
f:fdad100055ccb8c7284ad40f11b52b02:ninja/spkgbuild
f:a74dcaadc585dacf2fda54f4da7fd379:ninja/fix-musl.patch
f:f2b1713267d8921ed62ce450c2844adc:js60/spkgbuild
f:7f24a2d5afc847f62cddb39c3cfbb281:libwnck2/spkgbuild
f:0b25a413a88cf3933536222059af1c22:libcap/spkgbuild
f:a7929bba7b0ba8b3f8c499fb6fc063ae:lxpanel/spkgbuild
f:a8c196ca502f8dc1240b796295dcbb35:lxpanel/10-devproc-lxpanel.patch
f:454203b45918b746e0bae15de8d8b400:m4/spkgbuild
f:f940424ed76f6c2aef6d3df5f1d43e73:patch/spkgbuild
f:673f74b438e17b86b82187a1f214edbd:webkitgtk/spkgbuild
f:43bd36dcc5e058a7a70207154952ca64:webkitgtk/musl-fixes.patch
f:2f588e79005367ece88d5eb1bf46a66d:webkitgtk/fix-fast-memory-disabled.patch
f:58df1d673b35e659c2ef092eb32dd3fb:webkitgtk/fix-musl-javascriptcore.patch
f:117d7a0e180f30ade13988db07357bf7:findutils/spkgbuild
f:98e4c9616279b152310993240329bd26:icu/spkgbuild
f:ead7cf59d58f064b0bf314332123f045:elfutils/spkgbuild
f:2b48df4cc0eb074e304f6a6059e15a00:elfutils/0008-build-Provide-alternatives-for-glibc-assumptions-hel.patch
f:d9234ed3124ec618480a6ae92a927da6:groff/spkgbuild
f:aaa1fae57c3fd224b9acb899c27aec0c:lxinput/spkgbuild
f:b63472971093225bf1b5058c6294ad38:llvm/spkgbuild
f:e4b25ce6d62ae08161ef42d5ef54bcfe:llvm/0001-add-musl-triplets.patch
f:3f31c60513ab48f88e36c54ebbf797d6:llvm/llvm-001-musl.patch
f:295c343dcd457dc534662f011d7cff1a:llvm/llvm-config.h
f:1740419ded43a39d9f49354cc067a200:lxappearance-obconf/spkgbuild
f:c2d28ef8d232b6db615fab3a7e2a74c3:librsvg/spkgbuild
f:80903bf2704e1b09d437f077f2f955c9:gtk2/spkgbuild
f:8d340f5c23399de08ada36defed16437:gtk2/install
f:7e8a714a87ec784e303e110d9e17afa8:musl-fts/spkgbuild
f:95b8b8dfb987c248e1cd00340fd3b6e0:libuargp/spkgbuild
f:7f41c03f0cc90e59c5f1de3132ed091d:base-musl/spkgbuild
f:61eefb8f89093435d1b9b03b1bd04799:lz4/spkgbuild
